#!/bin/bash

# Choose compiler path
# export PATH=$PATH:/prj/l4linux/arm64-linaro-compiler/gcc-linaro-aarch64-linux-gnu-4.8-2013.09_linux/bin
# export PATH=$PATH:/pkg/asw/compilers/gnu/linaro-toolchain/4.9/bin
# export PATH=$PATH:/pkg/asw/compilers/gnu/linaro-toolchain/5.1/bin
# export PATH=$PATH:/pkg/asw/compilers/gnu/linaro-toolchain/.4.9-2014.06-02_linux-x86/bin

BASESTR=`basename $0`
SRCDIR=linux
THEARCH=arm64
#THEARCH=x86
BUILDDIR=${SRCDIR}_${THEARCH}
DEFCONFIG=defconfig
IMGNAME=Image
MODDIR=$BUILDDIR/MODULES
MODFLAG=false
DTBFLAG=false
KCONFIGFLAG=false
OCONFIGFLAG=false
HELPFLAG=false
#PREFIX=arm-linux-gnueabi-
#PREFIX=arm-linux-gnueabihf-
PREFIX=aarch64-linux-gnu-
ECHO=""

usage()
{
      echo ""
      echo "Usage: $BASESTR <option> [parameter] [option2] [param2]..."
      echo ""
      echo "Options"
      echo ""
      echo "-s <src>        : source dir (linux,staging)    Default: $SRCDIR"
      echo "-b <builddir>   : Build dir (linux_arm64, ...)  Default: $BUILDDIR"
      echo "-a <arch>       : Architecture (arm,arm64)      Default: $THEARCH"
      echo "-d <defconfig>  : Defconfig file                Default: $DEFCONFIG"
      echo "-i <img>        : Image name (zImage/Image)     Default: $IMGNAME"
      echo "-m [outdir]     : modules dir - builddir/outdir Default: $MODDIR"
      echo "-t              : build DTBs too                Default: $DTBFLAG"
      echo "-c              : Configure kernel [menuconfig] Default: $KCONFIGFLAG"
      echo "-o              : Configure kernel [oldconfig]  Default: $OCONFIGFLAG"
      echo "-p <prefix>     : Use prefix.                   Default: $PREFIX"
      echo "-g              : Dont build. Just echo cmds"
      echo "-h              : Display usage"
      echo ""
      echo "NB: These defaults is for the selected architecture selected"
      echo "    They may change depending on the architecture chosen"
      echo ""
      echo "EXamples:"
      echo ""
      echo "$BASESTR -a"
      echo "$BASESTR -a x86"
      echo "$BASESTR -a x86   -s linux-stable -d x86_64_defconfig"
      echo "$BASESTR -a arm64 -s linux_src -d i386_defconfig -b output"
      echo ""
}

adjust_dirs()
{
	# Adjust build dir after arch change
	if [ "$BUILDDIRFLAG" != "true" ]; then
	        BUILDDIR=${SRCDIR}_${THEARCH}
	fi

	if [ "$MODDIRFLAG" != "true" ]; then
		MODDIR=$BUILDDIR/MODULES
	fi

	SRCPATH=`readlink -m $SRCDIR`
	BUILDPATH=`readlink -m $BUILDDIR`
	MODPATH=`readlink -m $MODDIR`

	if [ "$THEARCH" == "x86" ]; then
		PREFIX=""
	fi
	if [ "$THEARCH" == "arm64" ]; then
		IMGNAME="Image"
	else
		IMGNAME="bzImage"
	fi
}

validate_dirs()
{
        # Validate that all files and dirs exist
	if [ "$HELPFLAG" != "true" ]; then
		found=1
	        if [ ! -d "$SRCPATH" ]; then
			echo "Could not find source dir $SRCDIR. Use -s to specify source directory"
			found=0
	        fi

		DEFCON=$SRCPATH/arch/$THEARCH/configs/$DEFCONFIG
	        if [ ! -f "$DEFCON" ]; then
			echo "Could not find defconfig file $DEFCON. Use -d to specify it (only the name)"
			found=0
		fi

	        if [ $found -eq 0 ]; then
			echo "Type the command $BASESTR -h to view detailed usage"
			echo ""
			exit
	        fi
	fi
}

display_config()
{
	echo "Build configuration"
	echo ""
        echo "SRCDIR      = $SRCDIR"
        echo "SRCPATH     = $SRCPATH"
        echo "BUILDDIR    = $BUILDDIR"
        echo "BUILDPATH   = $BUILDPATH"
        echo "THEARCH     = $THEARCH"
        echo "DEFCONFIG   = $DEFCONFIG"
        echo "IMGNAME     = $IMGNAME"
        echo "MODFLAG     = $MODFLAG"
        echo "MODDIR      = $MODDIR"
        echo "MODPATH     = $MODPATH"
        echo "DTBFLAG     = $DTBFLAG"
        echo "KCONFIGFLAG = $KCONFIGFLAG"
        echo "OCONFIGFLAG = $OCONFIGFLAG"
        echo "PREFIX      = $PREFIX"
	echo ""
}

build_kernel()
{
	STARTDATE=`date`
	STARTSEC=`date +"%s"`

	mkdir -p $SRCPATH
	mkdir -p $BUILDPATH
	mkdir -p $MODPATH

	cd $SRCPATH
	echo "Configuring the kernel..."

	if [ "$OCONFIGFLAG" == "true" ]; then
		# Customize the kernel using oldconfig
		${ECHO} make O=$BUILDPATH ARCH=$THEARCH CROSS_COMPILE=$PREFIX oldconfig
		${ECHO} make O=$BUILDPATH ARCH=$THEARCH CROSS_COMPILE=$PREFIX savedefconfig
		${ECHO} cp $BUILDPATH/defconfig arch/$THEARCH/configs/$DEFCONFIG
		exit
	elif [ "$KCONFIGFLAG" == "true" ]; then
		# Customize the kernel using menuconfig
		${ECHO} make O=$BUILDPATH ARCH=$THEARCH CROSS_COMPILE=$PREFIX $DEFCONFIG
		${ECHO} make O=$BUILDPATH ARCH=$THEARCH CROSS_COMPILE=$PREFIX menuconfig
		${ECHO} make O=$BUILDPATH ARCH=$THEARCH CROSS_COMPILE=$PREFIX savedefconfig
		${ECHO} cp $BUILDPATH/defconfig arch/$THEARCH/configs/$DEFCONFIG
		exit
	else
		# Customize the kernel using defconfig
		${ECHO} make O=$BUILDPATH ARCH=$THEARCH CROSS_COMPILE=$PREFIX $DEFCONFIG
	fi
	echo "done"
	echo ""

	echo "Building kernel [$IMGNAME]..."
	${ECHO} make O=$BUILDPATH ARCH=$THEARCH CROSS_COMPILE=$PREFIX $IMGNAME
	echo "done"
	echo ""

	if [ "$DTBFLAG" == "true" ]; then
		echo "Building DTB.."
		${ECHO} make O=$BUILDPATH ARCH=$THEARCH CROSS_COMPILE=$PREFIX dtbs
		echo "done"
		echo ""
	fi

	if [ "$MODFLAG" == "true" ]; then
		echo "Building modules.."
		mkdir -p $MODPATH
		${ECHO} make O=$BUILDPATH ARCH=$THEARCH CROSS_COMPILE=$PREFIX modules
		${ECHO} make O=$BUILDPATH ARCH=$THEARCH CROSS_COMPILE=$PREFIX modules_install INSTALL_MOD_PATH=$MODPATH
		echo "done"
		echo ""
	fi

	cd - &> /dev/null
	ENDSEC=`date +"%s"`
	ENDDATE=`date`

	# echo "Build started at $STARTDATE and ended at $STARTDATE"
	TIMEDIFF=`expr $ENDSEC - $STARTSEC`
	MIN=`expr $TIMEDIFF / 60`
	SEC=`expr $TIMEDIFF % 60`
	echo "Elapsed time = $MIN minutes $SEC seconds"
	echo ""
}


# Main script execution
echo ""

found=0
while getopts "s:b:a:d:i:mtcop:gh" opt; do
  found=1
  case $opt in
    s)
        SRCDIR=$OPTARG
        ;;
    b)
        BUILDDIR=$OPTARG
	BUILDDIRFLAG=true
        ;;
    a)
        THEARCH=$OPTARG
        ;;
    d)
        DEFCONFIG=$OPTARG
        ;;
    i)
        IMGNAME=$OPTARG
        ;;
    m)
	if [ "$OPTARG" != "" ]; then
	        MODDIR=$BUILDDIR/$OPTARG
		MODDIRFLAG=true
	fi
	MODFLAG=true
        ;;
    t)
        DTBFLAG=true
        ;;
    c)
        KCONFIGFLAG=true
        ;;
    o)
        OCONFIGFLAG=true
        ;;
    p)
        PREFIX=$OPTARG
        ;;
    g)
        ECHO=echo
        ;;
    h)
	HELPFLAG=true
        ;;
    \?)
        echo ""
        echo "Invalid/insufficient arguments mentioned!"
        usage
        ;;
  esac
done

adjust_dirs
validate_dirs

if [ "$HELPFLAG" == "true" ]; then
	usage
	exit
fi

if [ "$ECHO" != "" ]; then
	display_config
fi

build_kernel


